 CRYSTAL
 PRIMVEC
    13.20826414    0.00000000    0.00000000
     0.00000000   11.66835834    0.00000000
     0.00000000    0.00000000   21.58000000
 PRIMCOORD
   36 1
    32   1.76110189    0.97236319   12.09559000
    32   3.96247924    2.91708958    9.48441000
    34   2.20137736    0.97236319    9.64194400
    34   0.00000000    2.91708958   11.93805600
    32   6.16385660    0.97236319   12.09559000
    32   8.36523396    2.91708958    9.48441000
    34   6.60413207    0.97236319    9.64194400
    34   4.40275471    2.91708958   11.93805600
    32  10.56661131    0.97236319   12.09559000
    32  12.76798867    2.91708958    9.48441000
    34  11.00688679    0.97236319    9.64194400
    34   8.80550943    2.91708958   11.93805600
    32   1.76110189    4.86181597   12.09559000
    32   3.96247924    6.80654236    9.48441000
    34   2.20137736    4.86181597    9.64194400
    34   0.00000000    6.80654236   11.93805600
    32   6.16385660    4.86181597   12.09559000
    32   8.36523396    6.80654236    9.48441000
    34   6.60413207    4.86181597    9.64194400
    34   4.40275471    6.80654236   11.93805600
    32  10.56661131    4.86181597   12.09559000
    32  12.76798867    6.80654236    9.48441000
    34  11.00688679    4.86181597    9.64194400
    34   8.80550943    6.80654236   11.93805600
    32   1.76110189    8.75126875   12.09559000
    32   3.96247924   10.69599514    9.48441000
    34   2.20137736    8.75126875    9.64194400
    34   0.00000000   10.69599514   11.93805600
    32   6.16385660    8.75126875   12.09559000
    32   8.36523396   10.69599514    9.48441000
    34   6.60413207    8.75126875    9.64194400
    34   4.40275471   10.69599514   11.93805600
    32  10.56661131    8.75126875   12.09559000
    32  12.76798867   10.69599514    9.48441000
    34  11.00688679    8.75126875    9.64194400
    34   8.80550943   10.69599514   11.93805600
