 CRYSTAL
 PRIMVEC
     2.16852761   -1.25200000    0.00000000
     0.00000000    2.50400000    0.00000000
     0.00000000    0.00000000   17.00000000
 PRIMCOORD
   4 1
     5   0.72284254    1.25200000    6.00000000
     7   0.00000000    0.00000000    6.00000000
     5   0.00000000    0.00000000   11.00000000
     7   0.72284254    1.25200000   11.00000000
