 CRYSTAL
 PRIMVEC
     4.38000000    0.00000000    0.00000000
     0.00000000    3.82000000    0.00000000
     0.00000000    0.00000000   10.79000000
 PRIMCOORD
   8 1
    32   0.46428000    0.95500000    9.48441000
    32   1.72572000    0.95500000    4.08941000
    32   3.91572000    2.86500000    1.30559000
    32   2.65428000    2.86500000    6.70059000
    34   2.20314000    0.95500000    1.59692000
    34   4.36686000    0.95500000    6.99192000
    34   2.17686000    2.86500000    9.19308000
    34   0.01314000    2.86500000    3.79808000
